MODEL 1
REMARK VINA RESULT:    -7.363      0.000      0.000
REMARK INTER + INTRA:         -10.366
REMARK INTER:                  -8.870
REMARK INTRA:                  -1.496
REMARK UNBOUND:                -1.496
REMARK  6 active torsions:
REMARK  status: ('A' for Active; 'I' for Inactive)
REMARK    1  A    between atoms: C_2  and  C_3 
REMARK    2  A    between atoms: C_5  and  C_6 
REMARK    3  A    between atoms: C_6  and  N_10 
REMARK    4  A    between atoms: N_7  and  O_9 
REMARK    5  A    between atoms: N_10  and  C_11 
REMARK    6  A    between atoms: C_20  and  C_21 
ROOT
ATOM      1  N   UNL d   1      -8.509  47.713   3.955  0.00  0.00    -0.367 N 
ATOM      2  H   UNL d   1      -9.050  48.332   3.351  0.00  0.00     0.161 HD
ENDROOT
BRANCH   1   3
ATOM      3  C   UNL d   1      -7.650  48.507   5.050  0.00  0.00     0.131 C 
ATOM      4  N   UNL d   1      -6.501  48.892   4.523  0.00  0.00    -0.253 N 
ATOM      5  HN  UNL d   1      -6.243  48.696   3.555  1.00  0.00     0.196 HD
BRANCH   3   6
ATOM      6  C   UNL d   1      -8.092  48.916   6.823  0.00  0.00     0.010 C 
ATOM      7  C   UNL d   1      -9.318  49.262   7.234  0.00  0.00     0.024 C 
ATOM      8  C   UNL d   1      -9.489  49.737   8.605  0.00  0.00    -0.036 C 
ATOM      9  C   UNL d   1      -8.451  49.970   9.593  0.00  0.00     0.040 C 
ATOM     10  C   UNL d   1      -7.215  49.703   9.297  0.00  0.00     0.025 C 
ATOM     11 CL   UNL d   1      -8.640  50.582  11.195  0.00  0.00    -0.084 Cl
ATOM     12  C   UNL d   1      -7.110  49.133   8.056  0.00  0.00     0.017 C 
BRANCH   8  13
ATOM     13  C   UNL d   1     -10.868  50.034   9.022  0.00  0.00     0.036 C 
ATOM     14  C   UNL d   1     -11.395  48.832   9.773  0.00  0.00     0.010 C 
ENDBRANCH   8  13
ENDBRANCH   3   6
BRANCH   4  15
ATOM     15  O   UNL d   1      -5.680  49.583   5.394  0.00  0.00    -0.288 OA
ATOM     16  H   UNL d   1      -6.270  49.757   6.149  0.00  0.00     0.244 HD
ENDBRANCH   4  15
ENDBRANCH   1   3
BRANCH   1  17
ATOM     17  C   UNL d   1      -9.189  46.333   4.168  0.00  0.00     0.117 C 
ATOM     18  C   UNL d   1     -10.360  46.065   5.405  0.00  0.00     0.069 C 
ATOM     19  C   UNL d   1     -11.464  47.099   5.639  0.00  0.00    -0.023 C 
ATOM     20  C   UNL d   1     -12.471  47.286   6.568  0.00  0.00     0.010 C 
ATOM     21  C   UNL d   1     -11.470  48.025   4.668  0.00  0.00     0.075 C 
ATOM     22  C   UNL d   1     -13.330  48.439   6.540  0.00  0.00     0.001 C 
ATOM     23  C   UNL d   1     -13.222  49.420   5.560  0.00  0.00     0.003 C 
ATOM     24  C   UNL d   1     -12.249  49.217   4.623  0.00  0.00     0.037 C 
ATOM     25  O   UNL d   1     -10.670  47.661   3.672  0.00  0.00    -0.343 OA
ATOM     26  C   UNL d   1     -10.061  46.399   3.007  0.00  0.00     0.155 C 
BRANCH  26  27
ATOM     27  C   UNL d   1      -9.244  46.554   1.474  0.00  0.00     0.009 C 
ATOM     28  C   UNL d   1     -10.296  46.358   0.404  0.00  0.00     0.012 C 
ATOM     29  C   UNL d   1      -8.452  47.843   1.008  0.00  0.00     0.012 C 
ENDBRANCH  26  27
ENDBRANCH   1  17
TORSDOF 6
ENDMDL
