MODEL 1
REMARK VINA RESULT:    -7.140      0.000      0.000
REMARK INTER + INTRA:          -9.665
REMARK INTER:                  -8.809
REMARK INTRA:                  -0.856
REMARK UNBOUND:                -0.856
REMARK  4 active torsions:
REMARK  status: ('A' for Active; 'I' for Inactive)
REMARK    1  A    between atoms: C_2  and  C_3 
REMARK    2  A    between atoms: N_6  and  C_8 
REMARK    3  A    between atoms: C_17  and  C_18 
REMARK    4  A    between atoms: C_21  and  O_22 
ROOT
ATOM      1  C   UNL d   1      -6.853  47.363   2.069  0.00  0.00     0.013 C 
ATOM      2  S   UNL d   1      -7.999  48.127   3.170  0.00  0.00    -0.056 SA
ATOM      3  C   UNL d   1      -8.293  46.569   3.997  0.00  0.00     0.150 C 
ATOM      4  N   UNL d   1      -9.277  46.252   4.782  0.00  0.00    -0.335 N 
ATOM      5  HN  UNL d   1      -9.287  45.330   5.217  1.00  0.00     0.168 HD
ATOM      6  N   UNL d   1      -7.309  45.712   3.589  0.00  0.00    -0.335 N 
ATOM      7  C   UNL d   1      -6.558  46.125   2.509  0.00  0.00     0.057 C 
ATOM      8  H   UNL d   1      -7.241  44.777   3.958  0.00  0.00     0.168 HD
ENDROOT
BRANCH   4   9
ATOM      9  C   UNL d   1     -10.332  47.150   5.051  0.00  0.00     0.062 A 
ATOM     10  C   UNL d   1     -11.483  47.192   4.227  0.00  0.00    -0.034 A 
ATOM     11  C   UNL d   1     -11.634  46.284   3.033  0.00  0.00     0.050 C 
ATOM     12  C   UNL d   1     -12.544  48.056   4.550  0.00  0.00     0.009 A 
ATOM     13  C   UNL d   1     -12.515  48.821   5.714  0.00  0.00     0.002 A 
ATOM     14  C   UNL d   1     -11.416  48.745   6.564  0.00  0.00     0.026 A 
ATOM     15  C   UNL d   1     -10.330  47.924   6.232  0.00  0.00     0.061 A 
ATOM     16 CL   UNL d   1      -9.006  47.863   7.346  0.00  0.00    -0.082 Cl
ENDBRANCH   4   9
BRANCH   1  17
ATOM     17  C   UNL d   1      -6.282  48.019   0.847  0.00  0.00     0.044 C 
ATOM     18  C   UNL d   1      -6.976  47.689  -0.460  0.00  0.00     0.010 C 
ENDBRANCH   1  17
BRANCH   7  19
ATOM     19  C   UNL d   1      -5.468  45.304   1.989  0.00  0.00    -0.008 A 
ATOM     20  C   UNL d   1      -5.765  44.366   0.989  0.00  0.00     0.016 A 
ATOM     21  C   UNL d   1      -4.763  43.613   0.388  0.00  0.00     0.037 A 
ATOM     22  C   UNL d   1      -3.437  43.807   0.760  0.00  0.00     0.068 A 
ATOM     23  C   UNL d   1      -3.132  44.753   1.745  0.00  0.00     0.037 A 
ATOM     24  C   UNL d   1      -4.145  45.468   2.393  0.00  0.00     0.016 A 
BRANCH  22  25
ATOM     25  O   UNL d   1      -2.370  43.130   0.234  0.00  0.00    -0.356 OA
ATOM     26  C   UNL d   1      -1.086  43.701   0.478  0.00  0.00     0.210 C 
ENDBRANCH  22  25
ENDBRANCH   7  19
TORSDOF 4
ENDMDL
