MODEL 2
REMARK VINA RESULT:    -9.296      0.514      1.420
REMARK INTER + INTRA:         -11.864
REMARK INTER:                 -11.575
REMARK INTRA:                  -0.289
REMARK UNBOUND:                -0.394
REMARK  4 active torsions:
REMARK  status: ('A' for Active; 'I' for Inactive)
REMARK       I    between atoms: C1_1  and  N1_2 
REMARK    1  A    between atoms: C2_4  and  C1_1 
REMARK    2  A    between atoms: O1_3  and  C12_18 
REMARK    3  A    between atoms: C15_21  and  O1_3 
REMARK    4  A    between atoms: C9_14  and  C5_10 
ROOT
ATOM      1  C2  RU5 d   1     -11.318  47.079   4.535  0.00  0.00     0.034 A 
ATOM      2  C3  RU5 d   1     -10.251  47.055   5.298  0.00  0.00     0.049 A 
ATOM      3  N3  RU5 d   1      -9.179  48.135   7.495  0.00  0.00    -0.340 N 
ATOM      4  H3  RU5 d   1      -8.284  47.648   7.527  1.00  0.00     0.167 HD
ATOM      5  C4  RU5 d   1     -10.170  47.955   6.527  0.00  0.00     0.061 A 
ATOM      6  N4  RU5 d   1     -10.797  49.501   8.067  0.00  0.00    -0.340 N 
ATOM      7  C5  RU5 d   1      -9.628  49.111   8.431  0.00  0.00     0.116 A 
ATOM      8  C6  RU5 d   1     -11.163  48.752   6.823  0.00  0.00     0.060 A 
ATOM      9  C7  RU5 d   1     -12.406  48.782   5.937  0.00  0.00     0.033 A 
ATOM     10  C8  RU5 d   1     -12.477  48.006   4.878  0.00  0.00     0.019 A 
ATOM     11  H   RU5 d   1     -11.373  50.196   8.540  0.00  0.00     0.167 HD
ENDROOT
BRANCH   7  12
ATOM     12  C9  RU5 d   1      -8.843  49.600   9.644  0.00  0.00     0.008 A 
ATOM     13  C10 RU5 d   1      -7.324  49.742   9.586  0.00  0.00     0.018 A 
ATOM     14  C11 RU5 d   1      -6.664  50.158  10.646  0.00  0.00     0.038 A 
ATOM     15  C12 RU5 d   1      -7.416  50.483  11.933  0.00  0.00     0.076 A 
ATOM     16  C13 RU5 d   1      -8.722  50.356  11.983  0.00  0.00     0.038 A 
ATOM     17  C14 RU5 d   1      -9.487  49.877  10.755  0.00  0.00     0.018 A 
BRANCH  15  18
ATOM     18  O1  RU5 d   1      -6.729  50.938  13.061  0.00  0.00    -0.311 OA
BRANCH  18  19
ATOM     19  C15 RU5 d   1      -7.394  52.025  13.633  0.00  0.00     0.076 A 
ATOM     20  C16 RU5 d   1      -8.407  51.799  14.751  0.00  0.00     0.039 A 
ATOM     21  C17 RU5 d   1      -9.029  52.824  15.292  0.00  0.00     0.026 A 
ATOM     22  C18 RU5 d   1      -8.733  54.238  14.801  0.00  0.00     0.034 A 
ATOM     23 CLA  RU5 d   1      -9.573  55.630  15.532  0.00  0.00    -0.084 Cl
ATOM     24  C19 RU5 d   1      -7.859  54.433  13.838  0.00  0.00     0.026 A 
ATOM     25  C20 RU5 d   1      -7.139  53.244  13.212  0.00  0.00     0.039 A 
ENDBRANCH  18  19
ENDBRANCH  15  18
ENDBRANCH   7  12
BRANCH   1  26
ATOM     26  C1  RU5 d   1     -11.389  46.177   3.308  0.00  0.00     0.249 C 
ATOM     27  N1  RU5 d   1     -10.289  45.280   3.012  0.00  0.00    -0.366 N 
ATOM     28  H   RU5 d   1     -10.330  44.678   2.190  0.00  0.00     0.159 HD
ATOM     29  H   RU5 d   1      -9.474  45.252   3.625  0.00  0.00     0.159 HD
ATOM     30  OAB RU5 d   1     -12.333  46.209   2.596  0.00  0.00    -0.268 OA
ENDBRANCH   1  26
TORSDOF 4
ENDMDL
