MODEL 1
REMARK VINA RESULT:    -7.680      0.000      0.000
REMARK INTER + INTRA:          -9.785
REMARK INTER:                  -9.476
REMARK INTRA:                  -0.308
REMARK UNBOUND:                -0.308
REMARK  4 active torsions:
REMARK  status: ('A' for Active; 'I' for Inactive)
REMARK       I    between atoms: N_2  and  C_3 
REMARK       I    between atoms: C_3  and  N_21 
REMARK    1  A    between atoms: N_4  and  C_6 
REMARK    2  A    between atoms: C_9  and  C_10 
REMARK    3  A    between atoms: C_10  and  C_11 
REMARK    4  A    between atoms: N_21  and  C_22 
ROOT
ATOM      1  C   UNL d   1      -9.275  49.464  10.387  0.00  0.00     0.049 A 
ATOM      2  C   UNL d   1      -8.989  48.161   9.942  0.00  0.00     0.030 A 
ATOM      3  C   UNL d   1      -8.927  47.827   8.581  0.00  0.00     0.010 A 
ATOM      4  C   UNL d   1      -9.205  48.788   7.607  0.00  0.00    -0.054 A 
ATOM      5  C   UNL d   1      -9.453  50.091   8.058  0.00  0.00     0.010 A 
ATOM      6  C   UNL d   1      -9.533  50.424   9.415  0.00  0.00     0.030 A 
ENDROOT
BRANCH   1   7
ATOM      7  N   UNL d   1      -9.322  49.821  11.752  0.00  0.00    -0.192 N 
ATOM      8  C   UNL d   1      -8.339  50.495  12.323  0.00  0.00     0.678 C 
ATOM      9  N   UNL d   1      -7.263  50.952  11.612  0.00  0.00    -0.230 N 
ATOM     10  N   UNL d   1      -8.426  50.701  13.683  0.00  0.00    -0.192 N 
ATOM     11  C   UNL d   1      -5.948  51.373  12.005  0.00  0.00     0.165 C 
ATOM     12  H   UNL d   1      -7.370  50.909  10.609  0.00  0.00     0.177 HD
ATOM     13  H   UNL d   1      -9.201  50.233  14.135  0.00  0.00     0.184 HD
ATOM     14  HN  UNL d   1     -10.133  49.552  12.309  1.00  0.00     0.184 HD
BRANCH  10  15
ATOM     15  C   UNL d   1      -7.643  51.535  14.504  0.00  0.00     0.050 C 
ATOM     16  C   UNL d   1      -7.847  52.922  14.489  0.00  0.00     0.030 C 
ATOM     17  C   UNL d   1      -6.832  53.799  14.877  0.00  0.00     0.004 C 
ATOM     18  C   UNL d   1      -5.683  53.297  15.476  0.00  0.00     0.024 C 
ATOM     19  C   UNL d   1      -5.571  51.926  15.701  0.00  0.00     0.036 C 
ATOM     20 CL   UNL d   1      -4.244  51.337  16.625  0.00  0.00    -0.084 Cl
ATOM     21  C   UNL d   1      -6.514  51.035  15.170  0.00  0.00     0.053 C 
ENDBRANCH  10  15
ENDBRANCH   1   7
BRANCH   4  22
ATOM     22  C   UNL d   1      -9.127  48.465   6.129  0.00  0.00     0.082 C 
BRANCH  22  23
ATOM     23  C   UNL d   1     -10.397  47.812   5.662  0.00  0.00     0.002 A 
ATOM     24  C   UNL d   1     -10.506  46.670   4.800  0.00  0.00     0.037 A 
ATOM     25  C   UNL d   1      -9.441  45.822   4.215  0.00  0.00     0.071 C 
ATOM     26  N   UNL d   1     -11.777  46.393   4.495  0.00  0.00    -0.265 N 
ATOM     27  O   UNL d   1     -12.532  47.338   5.139  0.00  0.00    -0.242 OA
ATOM     28  HN  UNL d   1     -12.117  45.634   3.904  1.00  0.00     0.194 HD
ATOM     29  C   UNL d   1     -11.725  48.190   5.819  0.00  0.00     0.081 A 
ATOM     30  C   UNL d   1     -12.454  49.267   6.517  0.00  0.00     0.079 C 
ENDBRANCH  22  23
ENDBRANCH   4  22
TORSDOF 4
ENDMDL
