MODEL 1
REMARK VINA RESULT:    -8.114      0.000      0.000
REMARK INTER + INTRA:         -10.798
REMARK INTER:                 -10.249
REMARK INTRA:                  -0.549
REMARK UNBOUND:                -0.549
REMARK  6 active torsions:
REMARK  status: ('A' for Active; 'I' for Inactive)
REMARK    1  A    between atoms: N_1  and  C_4 
REMARK    2  A    between atoms: C_4  and  C_5 
REMARK    3  A    between atoms: C_8  and  N_9 
REMARK    4  A    between atoms: N_9  and  C_10 
REMARK    5  A    between atoms: N_23  and  C_25 
REMARK    6  A    between atoms: C_25  and  C_26 
ROOT
ATOM      1  C   UNL d   1      -9.578  47.399   3.082  0.00  0.00     0.068 C 
ATOM      2  C   UNL d   1      -9.222  47.390   1.793  0.00  0.00     0.113 C 
ATOM      3  N   UNL d   1      -7.930  47.549   1.381  0.00  0.00    -0.351 N 
ATOM      4  C   UNL d   1      -6.854  47.749   2.234  0.00  0.00     0.107 C 
ATOM      5  C   UNL d   1      -7.132  47.912   3.552  0.00  0.00     0.079 C 
ATOM      6  C   UNL d   1      -8.525  47.702   4.102  0.00  0.00     0.053 C 
ATOM      7  N   UNL d   1      -8.721  47.838   5.375  0.00  0.00    -0.384 N 
ATOM      8  HN  UNL d   1      -7.945  47.986   6.020  1.00  0.00     0.160 HD
ATOM      9  H   UNL d   1      -7.703  47.349   0.413  0.00  0.00     0.166 HD
ENDROOT
BRANCH   4  10
ATOM     10  N   UNL d   1      -5.539  47.755   1.748  0.00  0.00    -0.342 N 
ATOM     11  H   UNL d   1      -5.358  48.356   0.950  0.00  0.00     0.167 HD
BRANCH  10  12
ATOM     12  C   UNL d   1      -4.424  47.153   2.391  0.00  0.00     0.034 C 
ATOM     13  C   UNL d   1      -4.273  45.772   2.259  0.00  0.00     0.030 C 
ATOM     14  C   UNL d   1      -3.248  45.126   2.936  0.00  0.00     0.014 C 
ATOM     15  C   UNL d   1      -2.413  45.790   3.854  0.00  0.00    -0.029 C 
ATOM     16  C   UNL d   1      -1.304  45.160   4.434  0.00  0.00    -0.008 C 
ATOM     17  C   UNL d   1      -2.636  47.117   4.236  0.00  0.00    -0.021 C 
ATOM     18  C   UNL d   1      -0.319  45.841   5.162  0.00  0.00     0.098 C 
ATOM     19  C   UNL d   1      -0.910  46.570   6.120  0.00  0.00     0.098 C 
ATOM     20  F   UNL d   1      -0.979  45.864   7.273  0.00  0.00    -0.210 F 
ATOM     21  C   UNL d   1      -1.904  47.421   5.536  0.00  0.00     0.050 C 
ATOM     22  C   UNL d   1      -3.541  47.830   3.293  0.00  0.00     0.042 C 
ENDBRANCH  10  12
ENDBRANCH   4  10
BRANCH   1  23
ATOM     23  C   UNL d   1     -10.990  47.038   3.516  0.00  0.00    -0.033 C 
BRANCH  23  24
ATOM     24  N   UNL d   1     -12.160  46.738   3.876  0.00  0.00    -0.365 N 
ATOM     25  HN2 UNL d   1     -11.213  46.980   3.585  1.00  0.00     0.165 HD
ATOM     26  HN1 UNL d   1     -13.107  46.495   4.167  1.00  0.00     0.165 HD
ENDBRANCH  23  24
ENDBRANCH   1  23
BRANCH   7  27
ATOM     27  C   UNL d   1     -10.114  47.769   5.853  0.00  0.00     0.158 C 
BRANCH  27  28
ATOM     28  C   UNL d   1     -10.370  48.550   7.212  0.00  0.00    -0.041 C 
ATOM     29  C   UNL d   1      -9.388  48.504   8.175  0.00  0.00     0.009 C 
ATOM     30  C   UNL d   1      -9.707  48.804   9.514  0.00  0.00     0.001 C 
ATOM     31  C   UNL d   1     -11.021  49.006   9.954  0.00  0.00     0.000 C 
ATOM     32  C   UNL d   1     -12.009  49.115   9.020  0.00  0.00     0.001 C 
ATOM     33  C   UNL d   1     -11.618  49.104   7.682  0.00  0.00     0.009 C 
ENDBRANCH  27  28
ENDBRANCH   7  27
TORSDOF 6
ENDMDL
