MODEL 1
REMARK VINA RESULT:    -6.919      0.000      0.000
REMARK INTER + INTRA:         -10.301
REMARK INTER:                  -9.548
REMARK INTRA:                  -0.753
REMARK UNBOUND:                -0.753
REMARK  7 active torsions:
REMARK  status: ('A' for Active; 'I' for Inactive)
REMARK    1  A    between atoms: C_2  and  C_3 
REMARK    2  A    between atoms: C_3  and  N_5 
REMARK    3  A    between atoms: C_7  and  N_9 
REMARK    4  A    between atoms: N_9  and  N_10 
REMARK    5  A    between atoms: C_12  and  C_13 
REMARK    6  A    between atoms: C_17  and  C_18 
REMARK       I    between atoms: C_18  and  N_20 
REMARK    7  A    between atoms: N_20  and  C_21 
ROOT
ATOM      1  C   UNL d   1     -11.424  47.539   5.657  0.00  0.00    -0.018 C 
ATOM      2  C   UNL d   1     -12.555  48.040   5.092  0.00  0.00     0.013 C 
ATOM      3  C   UNL d   1     -12.531  49.094   5.879  0.00  0.00     0.002 C 
ATOM      4  C   UNL d   1     -11.428  49.518   7.178  0.00  0.00     0.017 C 
ATOM      5  C   UNL d   1     -10.644  48.792   7.914  0.00  0.00     0.033 C 
ATOM      6  C   UNL d   1     -10.557  47.753   7.011  0.00  0.00     0.030 C 
ENDROOT
BRANCH   1   7
ATOM      7  C   UNL d   1     -10.819  46.888   4.573  0.00  0.00     0.118 C 
ATOM      8  N   UNL d   1      -9.659  47.225   4.115  0.00  0.00    -0.310 N 
ATOM      9  HN  UNL d   1      -9.325  46.753   3.274  1.00  0.00     0.186 HD
BRANCH   8  10
ATOM     10  N   UNL d   1      -8.794  48.233   4.716  0.00  0.00    -0.290 N 
ATOM     11  H   UNL d   1      -9.146  48.350   5.674  0.00  0.00     0.188 HD
BRANCH  10  12
ATOM     12  C   UNL d   1      -7.489  48.923   4.477  0.00  0.00     0.092 C 
ATOM     13  N   UNL d   1      -6.728  49.236   3.437  0.00  0.00    -0.336 N 
ATOM     14  HN  UNL d   1      -7.195  49.624   2.617  1.00  0.00     0.168 HD
ATOM     15  C   UNL d   1      -7.001  49.672   5.653  0.00  0.00     0.090 C 
BRANCH  13  16
ATOM     16  C   UNL d   1      -5.123  49.055   3.359  0.00  0.00     0.100 C 
ATOM     17 CL   UNL d   1      -4.572  47.399   3.300  0.00  0.00    -0.065 Cl
BRANCH  16  18
ATOM     18  C   UNL d   1      -4.036  50.119   3.722  0.00  0.00     0.011 C 
ATOM     19  C   UNL d   1      -2.162  50.040   4.330  0.00  0.00     0.039 C 
ENDBRANCH  16  18
ENDBRANCH  13  16
ENDBRANCH  10  12
ENDBRANCH   8  10
ENDBRANCH   1   7
BRANCH   5  20
ATOM     20  C   UNL d   1     -10.915  48.989   9.479  0.00  0.00     0.256 C 
ATOM     21  O   UNL d   1     -12.119  49.068   9.752  0.00  0.00    -0.267 OA
ATOM     22  N   UNL d   1      -9.949  49.213  10.651  0.00  0.00    -0.323 N 
ATOM     23  H   UNL d   1     -10.495  49.339  11.505  0.00  0.00     0.169 HD
BRANCH  22  24
ATOM     24  C   UNL d   1      -8.529  49.633  10.933  0.00  0.00     0.035 C 
ATOM     25  C   UNL d   1      -8.043  50.444  11.995  0.00  0.00     0.029 C 
ATOM     26  C   UNL d   1      -6.821  51.191  11.972  0.00  0.00     0.002 C 
ATOM     27  C   UNL d   1      -5.866  50.822  11.068  0.00  0.00     0.000 C 
ATOM     28  C   UNL d   1      -6.146  49.683  10.310  0.00  0.00     0.002 C 
ATOM     29  C   UNL d   1      -7.469  49.133  10.188  0.00  0.00     0.029 C 
ENDBRANCH  22  24
ENDBRANCH   5  20
TORSDOF 7
ENDMDL
