MODEL 1
REMARK VINA RESULT:    -8.322      0.000      0.000
REMARK INTER + INTRA:         -11.860
REMARK INTER:                 -10.998
REMARK INTRA:                  -0.862
REMARK UNBOUND:                -0.862
REMARK  6 active torsions:
REMARK  status: ('A' for Active; 'I' for Inactive)
REMARK    1  A    between atoms: C_2  and  C_5 
REMARK    2  A    between atoms: C_5  and  C_6 
REMARK    3  A    between atoms: C_6  and  N_7 
REMARK       I    between atoms: N_7  and  C_8 
REMARK    4  A    between atoms: C_8  and  C_10 
REMARK    5  A    between atoms: C_10  and  C_11 
REMARK    6  A    between atoms: C_12  and  O_13 
ROOT
ATOM      1  C   UNL d   1     -10.936  48.105   5.599  0.00  0.00     0.001 A 
ATOM      2  C   UNL d   1     -12.313  47.900   5.439  0.00  0.00     0.073 A 
ATOM      3  C   UNL d   1     -13.223  48.290   6.418  0.00  0.00     0.040 A 
ATOM      4  C   UNL d   1     -12.757  48.861   7.609  0.00  0.00     0.041 A 
ATOM      5  C   UNL d   1     -11.387  49.087   7.796  0.00  0.00     0.091 A 
ATOM      6  O   UNL d   1     -10.996  49.596   9.022  0.00  0.00    -0.309 OA
ATOM      7  C   UNL d   1      -9.648  49.711   9.283  0.00  0.00     0.090 A 
ATOM      8  C   UNL d   1      -9.239  50.203  10.518  0.00  0.00     0.038 A 
ATOM      9  C   UNL d   1      -7.868  50.341  10.805  0.00  0.00     0.003 A 
ATOM     10  C   UNL d   1      -6.896  49.939   9.890  0.00  0.00     0.001 A 
ATOM     11  C   UNL d   1      -7.297  49.440   8.666  0.00  0.00     0.018 A 
ATOM     12  C   UNL d   1      -8.664  49.394   8.365  0.00  0.00     0.049 A 
ATOM     13  C   UNL d   1      -9.056  49.047   7.013  0.00  0.00     0.198 C 
ATOM     14  O   UNL d   1      -8.170  48.895   6.195  0.00  0.00    -0.286 OA
ATOM     15  C   UNL d   1     -10.494  48.771   6.765  0.00  0.00     0.058 A 
ENDROOT
BRANCH   1  16
ATOM     16  C   UNL d   1      -9.999  47.516   4.569  0.00  0.00     0.145 C 
BRANCH  16  17
ATOM     17  C   UNL d   1      -9.402  46.175   4.945  0.00  0.00     0.222 C 
ATOM     18  N   UNL d   1      -8.369  45.630   4.245  0.00  0.00    -0.361 N 
ATOM     19  H   UNL d   1      -8.289  44.654   4.484  0.00  0.00     0.162 HD
ATOM     20  O   UNL d   1      -9.895  45.476   5.835  0.00  0.00    -0.273 OA
BRANCH  18  21
ATOM     21  C   UNL d   1      -7.550  46.143   3.166  0.00  0.00     0.126 C 
BRANCH  21  22
ATOM     22  C   UNL d   1      -7.802  45.572   1.775  0.00  0.00     0.062 C 
BRANCH  22  23
ATOM     23  C   UNL d   1      -8.638  46.527   0.941  0.00  0.00     0.098 C 
ATOM     24  C   UNL d   1      -8.382  47.980   1.304  0.00  0.00     0.051 C 
ATOM     25  C   UNL d   1     -10.118  46.229   1.088  0.00  0.00     0.051 C 
ATOM     26  F   UNL d   1      -8.299  46.339  -0.367  0.00  0.00    -0.244 F 
ENDBRANCH  22  23
ENDBRANCH  21  22
ENDBRANCH  18  21
ENDBRANCH  16  17
ENDBRANCH   1  16
BRANCH   2  27
ATOM     27  O   UNL d   1     -12.737  47.297   4.289  0.00  0.00    -0.360 OA
ATOM     28  H   UNL d   1     -12.205  46.510   4.093  0.00  0.00     0.217 HD
ENDBRANCH   2  27
TORSDOF 6
ENDMDL
