MODEL 1
REMARK VINA RESULT:    -9.324      0.000      0.000
REMARK INTER + INTRA:         -12.428
REMARK INTER:                 -11.777
REMARK INTRA:                  -0.652
REMARK UNBOUND:                -0.652
REMARK  5 active torsions:
REMARK  status: ('A' for Active; 'I' for Inactive)
REMARK    1  A    between atoms: C_2  and  C_4 
REMARK    2  A    between atoms: C_6  and  C_7 
REMARK    3  A    between atoms: N_8  and  N_10 
REMARK    4  A    between atoms: C_19  and  C_20 
REMARK    5  A    between atoms: C_27  and  O_28 
ROOT
ATOM      1  C   UNL d   1     -11.976  49.083   7.775  0.00  0.00    -0.021 A 
ATOM      2  C   UNL d   1     -10.799  49.122   7.017  0.00  0.00     0.024 A 
ATOM      3  C   UNL d   1      -9.507  49.182   7.559  0.00  0.00    -0.007 A 
ATOM      4  C   UNL d   1      -9.392  49.205   8.964  0.00  0.00    -0.012 A 
ATOM      5  C   UNL d   1     -10.578  49.187   9.740  0.00  0.00     0.050 A 
ATOM      6  C   UNL d   1     -11.842  49.132   9.154  0.00  0.00     0.073 A 
ENDROOT
BRANCH   3   7
ATOM      7  C   UNL d   1      -8.285  49.206   6.676  0.00  0.00     0.119 C 
ATOM      8  N   UNL d   1      -7.865  48.357   5.771  0.00  0.00    -0.309 N 
ATOM      9  HN  UNL d   1      -7.014  48.492   5.225  1.00  0.00     0.186 HD
BRANCH   8  10
ATOM     10  N   UNL d   1      -8.688  47.266   5.633  0.00  0.00    -0.286 N 
ATOM     11  C   UNL d   1      -9.192  47.041   4.457  0.00  0.00     0.120 C 
ATOM     12  C   UNL d   1     -10.048  45.816   4.332  0.00  0.00     0.050 C 
ATOM     13  N   UNL d   1      -9.004  47.836   3.366  0.00  0.00    -0.332 N 
ATOM     14  C   UNL d   1     -10.570  45.562   3.117  0.00  0.00     0.007 C 
ATOM     15  C   UNL d   1     -10.196  46.364   1.959  0.00  0.00     0.042 C 
ATOM     16  C   UNL d   1      -9.443  47.456   2.132  0.00  0.00     0.104 C 
ATOM     17 CL   UNL d   1      -8.871  48.436   0.859  0.00  0.00    -0.065 Cl
ATOM     18  H   UNL d   1      -8.476  48.685   3.492  0.00  0.00     0.168 HD
ATOM     19  HN  UNL d   1      -8.894  46.656   6.424  1.00  0.00     0.188 HD
ENDBRANCH   8  10
ENDBRANCH   3   7
BRANCH   4  20
ATOM     20  C   UNL d   1      -8.114  49.277   9.685  0.00  0.00    -0.025 A 
ATOM     21  C   UNL d   1      -7.867  50.307  10.608  0.00  0.00     0.012 A 
ATOM     22  C   UNL d   1      -6.602  50.465  11.173  0.00  0.00     0.001 A 
ATOM     23  C   UNL d   1      -5.604  49.528  10.914  0.00  0.00     0.000 A 
ATOM     24  C   UNL d   1      -5.869  48.438  10.091  0.00  0.00     0.001 A 
ATOM     25  C   UNL d   1      -7.091  48.351   9.429  0.00  0.00     0.012 A 
ENDBRANCH   4  20
BRANCH   1  26
ATOM     26  C   UNL d   1     -13.276  48.966   6.990  0.00  0.00     0.013 C 
ATOM     27  C   UNL d   1     -13.229  49.863   5.745  0.00  0.00     0.015 C 
ATOM     28  C   UNL d   1     -13.639  47.546   6.579  0.00  0.00     0.015 C 
ENDBRANCH   1  26
BRANCH   6  29
ATOM     29  O   UNL d   1     -12.946  49.123   9.950  0.00  0.00    -0.360 OA
ATOM     30  H   UNL d   1     -12.834  48.522  10.701  0.00  0.00     0.217 HD
ENDBRANCH   6  29
TORSDOF 5
ENDMDL
