MODEL 1
REMARK VINA RESULT:    -7.384      0.000      0.000
REMARK INTER + INTRA:          -9.694
REMARK INTER:                  -9.111
REMARK INTRA:                  -0.583
REMARK UNBOUND:                -0.583
REMARK  4 active torsions:
REMARK  status: ('A' for Active; 'I' for Inactive)
REMARK    1  A    between atoms: C_2  and  C_3 
REMARK       I    between atoms: C_3  and  N_5 
REMARK    2  A    between atoms: N_5  and  C_6 
REMARK    3  A    between atoms: C_9  and  N_10 
REMARK    4  A    between atoms: C_14  and  C_15 
ROOT
ATOM      1  N   UNL d   1     -11.082  46.935   3.320  0.00  0.00    -0.355 N 
ATOM      2  HN  UNL d   1     -11.918  46.489   2.946  1.00  0.00     0.166 HD
ATOM      3  C   UNL d   1     -10.034  47.012   2.509  0.00  0.00     0.038 C 
ATOM      4  C   UNL d   1     -10.242  46.462   1.145  0.00  0.00     0.049 C 
ATOM      5  C   UNL d   1      -9.287  46.782   0.223  0.00  0.00    -0.009 C 
ATOM      6  N   UNL d   1      -8.364  47.857   0.401  0.00  0.00    -0.287 NA
ATOM      7  C   UNL d   1      -8.201  48.501   1.738  0.00  0.00     0.096 C 
ATOM      8  C   UNL d   1      -6.972  49.257   2.063  0.00  0.00     0.071 C 
ATOM      9  C   UNL d   1      -5.800  48.540   2.088  0.00  0.00    -0.008 C 
ATOM     10 CL   UNL d   1      -4.228  49.180   1.855  0.00  0.00    -0.093 Cl
ATOM     11  C   UNL d   1      -6.097  47.215   2.262  0.00  0.00     0.051 C 
ATOM     12  C   UNL d   1      -7.411  46.919   2.980  0.00  0.00     0.043 C 
ATOM     13  C   UNL d   1      -8.608  47.622   2.695  0.00  0.00    -0.035 C 
ATOM     14  H   UNL d   1      -7.468  47.551   0.010  0.00  0.00     0.128 HD
ENDROOT
BRANCH   1  15
ATOM     15  C   UNL d   1     -11.155  47.410   4.647  0.00  0.00     0.048 C 
ATOM     16  C   UNL d   1     -12.248  48.101   5.075  0.00  0.00     0.035 C 
ATOM     17  C   UNL d   1     -12.184  48.878   6.209  0.00  0.00     0.051 C 
ATOM     18  C   UNL d   1     -11.347  48.505   7.213  0.00  0.00     0.107 C 
ATOM     19  N   UNL d   1     -10.253  47.780   6.931  0.00  0.00    -0.350 N 
ATOM     20  C   UNL d   1     -10.153  47.299   5.630  0.00  0.00     0.119 C 
ATOM     21  HN  UNL d   1      -9.534  47.594   7.631  1.00  0.00     0.166 HD
BRANCH  18  22
ATOM     22  N   UNL d   1     -11.693  48.897   8.510  0.00  0.00    -0.313 N 
ATOM     23  C   UNL d   1     -10.968  49.667   9.400  0.00  0.00     0.222 C 
ATOM     24  O   UNL d   1     -11.434  49.848  10.532  0.00  0.00    -0.273 OA
ATOM     25  H   UNL d   1     -12.640  48.701   8.802  0.00  0.00     0.170 HD
BRANCH  23  26
ATOM     26  C   UNL d   1      -9.679  50.422   9.006  0.00  0.00     0.099 C 
ATOM     27  C   UNL d   1      -8.354  49.812   9.417  0.00  0.00     0.014 C 
ENDBRANCH  23  26
ENDBRANCH  18  22
ENDBRANCH   1  15
BRANCH   5  28
ATOM     28  C   UNL d   1      -9.267  46.057  -1.114  0.00  0.00     0.022 C 
ATOM     29  C   UNL d   1      -9.714  47.085  -2.145  0.00  0.00     0.015 C 
ATOM     30  C   UNL d   1      -7.891  45.477  -1.490  0.00  0.00     0.015 C 
ENDBRANCH   5  28
TORSDOF 4
ENDMDL
