MODEL 1
REMARK VINA RESULT:    -6.481      0.000      0.000
REMARK INTER + INTRA:          -9.311
REMARK INTER:                  -8.754
REMARK INTRA:                  -0.557
REMARK UNBOUND:                -0.557
REMARK  7 active torsions:
REMARK  status: ('A' for Active; 'I' for Inactive)
REMARK    1  A    between atoms: C_6  and  O_7 
REMARK    2  A    between atoms: O_7  and  C_8 
REMARK    3  A    between atoms: C_8  and  C_9 
REMARK    4  A    between atoms: C_9  and  O_10 
REMARK    5  A    between atoms: C_9  and  C_11 
REMARK    6  A    between atoms: C_17  and  C_18 
REMARK    7  A    between atoms: C_18  and  N_19 
ROOT
ATOM      1  C   UNL d   1     -11.255  47.592   5.332  0.00  0.00     0.151 C 
ENDROOT
BRANCH   1   2
ATOM      2  C   UNL d   1     -10.763  47.782   6.880  0.00  0.00     0.208 C 
BRANCH   2   3
ATOM      3  O   UNL d   1     -10.756  49.070   7.337  0.00  0.00    -0.347 OA
BRANCH   3   4
ATOM      4  C   UNL d   1      -9.947  49.257   8.411  0.00  0.00     0.092 C 
ATOM      5  C   UNL d   1      -8.543  49.530   8.442  0.00  0.00    -0.027 C 
ATOM      6  C   UNL d   1      -8.078  50.140   9.597  0.00  0.00     0.016 C 
ATOM      7  C   UNL d   1      -7.460  49.319   7.394  0.00  0.00     0.051 C 
ATOM      8  C   UNL d   1      -8.895  50.276  10.719  0.00  0.00    -0.060 C 
ATOM      9  C   UNL d   1      -8.315  50.805  11.981  0.00  0.00     0.048 C 
ATOM     10  C   UNL d   1     -10.228  49.861  10.699  0.00  0.00     0.028 C 
ATOM     11  C   UNL d   1     -10.763  49.373   9.538  0.00  0.00     0.045 C 
ATOM     12 BR   UNL d   1     -12.620  48.917   9.487  0.00  0.00    -0.048 Br
ENDBRANCH   3   4
ENDBRANCH   2   3
ENDBRANCH   1   2
BRANCH   1  13
ATOM     13  O   UNL d   1     -12.282  48.470   4.805  0.00  0.00    -0.393 OA
ATOM     14  H   UNL d   1     -12.261  49.328   5.260  0.00  0.00     0.210 HD
ENDBRANCH   1  13
BRANCH   1  15
ATOM     15  C   UNL d   1     -10.038  47.401   4.175  0.00  0.00    -0.001 C 
ATOM     16  C   UNL d   1      -9.204  46.685   5.263  0.00  0.00     0.019 C 
ATOM     17  C   UNL d   1     -10.897  47.235   2.882  0.00  0.00     0.013 C 
ATOM     18  C   UNL d   1     -10.733  45.933   2.129  0.00  0.00     0.001 C 
ATOM     19  C   UNL d   1      -9.269  45.710   1.772  0.00  0.00     0.001 C 
ATOM     20  C   UNL d   1      -8.422  45.874   2.999  0.00  0.00     0.019 C 
ATOM     21  C   UNL d   1      -8.622  47.364   3.497  0.00  0.00     0.085 C 
BRANCH  21  22
ATOM     22  C   UNL d   1      -7.601  48.127   3.792  0.00  0.00    -0.072 C 
BRANCH  22  23
ATOM     23  N   UNL d   1      -6.688  48.881   3.915  0.00  0.00    -0.369 N 
ATOM     24  H   UNL d   1      -6.195  49.080   3.033  0.00  0.00     0.165 HD
ATOM     25  HN  UNL d   1      -6.420  49.292   4.808  1.00  0.00     0.165 HD
ENDBRANCH  22  23
ENDBRANCH  21  22
ENDBRANCH   1  15
TORSDOF 7
ENDMDL
