MODEL 1
REMARK VINA RESULT:    -7.925      0.000      0.000
REMARK INTER + INTRA:          -9.785
REMARK INTER:                  -9.778
REMARK INTRA:                  -0.008
REMARK UNBOUND:                -0.008
REMARK  4 active torsions:
REMARK  status: ('A' for Active; 'I' for Inactive)
REMARK    1  A    between atoms: N_7  and  C_9 
REMARK    2  A    between atoms: C_19  and  C_20 
REMARK    3  A    between atoms: C_20  and  S_21 
REMARK    4  A    between atoms: S_21  and  C_22 
ROOT
ATOM      1  C   UNL d   1     -13.030  48.171   4.458  0.00  0.00     0.038 C 
ATOM      2  C   UNL d   1     -12.500  48.810   5.704  0.00  0.00     0.002 C 
ATOM      3  C   UNL d   1     -11.370  48.633   6.412  0.00  0.00     0.068 C 
ATOM      4  N   UNL d   1     -11.107  49.436   7.514  0.00  0.00    -0.285 N 
ATOM      5  N   UNL d   1      -9.901  49.473   8.115  0.00  0.00    -0.131 N 
ATOM      6  C   UNL d   1      -8.924  48.529   7.864  0.00  0.00     0.697 C 
ATOM      7  N   UNL d   1      -7.804  48.448   8.524  0.00  0.00    -0.190 N 
ATOM      8  HN  UNL d   1      -7.105  47.759   8.244  1.00  0.00     0.184 HD
ATOM      9  N   UNL d   1      -9.120  47.596   6.849  0.00  0.00    -0.191 N 
ATOM     10  HN  UNL d   1      -8.393  46.913   6.632  1.00  0.00     0.184 HD
ATOM     11  C   UNL d   1     -10.245  47.603   6.173  0.00  0.00     0.064 C 
ATOM     12  H   UNL d   1     -11.749  50.206   7.680  0.00  0.00     0.187 HD
ATOM     13  H   UNL d   1      -9.729  50.120   8.874  0.00  0.00     0.205 HD
ENDROOT
BRANCH   7  14
ATOM     14  C   UNL d   1      -7.543  49.305   9.627  0.00  0.00     0.051 A 
ATOM     15  C   UNL d   1      -8.496  49.507  10.637  0.00  0.00     0.030 A 
ATOM     16  C   UNL d   1      -8.255  50.373  11.714  0.00  0.00     0.011 A 
ATOM     17  C   UNL d   1      -7.026  51.031  11.841  0.00  0.00    -0.040 A 
ATOM     18  C   UNL d   1      -6.781  51.931  13.025  0.00  0.00     0.050 C 
ATOM     19  C   UNL d   1      -6.054  50.803  10.854  0.00  0.00     0.042 A 
ATOM     20 CL   UNL d   1      -4.508  51.576  10.940  0.00  0.00    -0.084 Cl
ATOM     21  C   UNL d   1      -6.310  49.949   9.763  0.00  0.00     0.054 A 
ENDBRANCH   7  14
BRANCH  11  22
ATOM     22  C   UNL d   1     -10.399  46.561   5.053  0.00  0.00     0.139 C 
BRANCH  22  23
ATOM     23  S   UNL d   1      -8.817  46.125   4.168  0.00  0.00    -0.124 SA
BRANCH  23  24
ATOM     24  C   UNL d   1      -9.173  46.682   2.547  0.00  0.00     0.000 A 
ATOM     25  C   UNL d   1      -8.694  47.957   2.278  0.00  0.00     0.018 A 
ATOM     26  C   UNL d   1      -8.779  48.472   1.002  0.00  0.00     0.001 A 
ATOM     27  C   UNL d   1      -9.363  47.715  -0.008  0.00  0.00     0.000 A 
ATOM     28  C   UNL d   1      -9.897  46.452   0.268  0.00  0.00     0.001 A 
ATOM     29  C   UNL d   1      -9.840  45.942   1.566  0.00  0.00     0.018 A 
ENDBRANCH  23  24
ENDBRANCH  22  23
ENDBRANCH  11  22
TORSDOF 4
ENDMDL
