MODEL 1
REMARK VINA RESULT:    -8.800      0.000      0.000
REMARK INTER + INTRA:         -10.995
REMARK INTER:                 -10.858
REMARK INTRA:                  -0.137
REMARK UNBOUND:                -0.137
REMARK  4 active torsions:
REMARK  status: ('A' for Active; 'I' for Inactive)
REMARK    1  A    between atoms: C_5  and  C_6 
REMARK    2  A    between atoms: C_9  and  C_10 
REMARK    3  A    between atoms: N_11  and  N_13 
REMARK    4  A    between atoms: C_17  and  C_18 
ROOT
ATOM      1  C   UNL d   1     -11.268  45.942   3.053  0.00  0.00     0.136 C 
ATOM      2  N   UNL d   1     -10.271  45.221   2.607  0.00  0.00    -0.308 N 
ATOM      3  HN  UNL d   1     -10.385  44.641   1.776  1.00  0.00     0.186 HD
ENDROOT
BRANCH   2   4
ATOM      4  N   UNL d   1      -9.047  45.256   3.286  0.00  0.00    -0.280 N 
ATOM      5  C   UNL d   1      -7.989  45.697   2.661  0.00  0.00     0.163 C 
ATOM      6  N   UNL d   1      -6.713  45.561   3.159  0.00  0.00    -0.334 N 
ATOM      7  S   UNL d   1      -7.853  46.199   0.949  0.00  0.00    -0.062 SA
ATOM      8  C   UNL d   1      -5.737  45.441   2.184  0.00  0.00     0.051 C 
ATOM      9  H   UNL d   1      -6.558  45.198   4.087  0.00  0.00     0.168 HD
ATOM     10  C   UNL d   1      -6.174  45.676   0.942  0.00  0.00     0.083 C 
ATOM     11  HN  UNL d   1      -8.982  44.942   4.254  1.00  0.00     0.189 HD
BRANCH   8  12
ATOM     12  C   UNL d   1      -4.324  45.272   2.522  0.00  0.00    -0.009 A 
ATOM     13  C   UNL d   1      -3.518  44.748   1.499  0.00  0.00     0.014 A 
ATOM     14  C   UNL d   1      -2.148  44.588   1.672  0.00  0.00     0.001 A 
ATOM     15  C   UNL d   1      -1.559  44.972   2.869  0.00  0.00     0.000 A 
ATOM     16  C   UNL d   1      -2.343  45.504   3.896  0.00  0.00     0.001 A 
ATOM     17  C   UNL d   1      -3.732  45.632   3.736  0.00  0.00     0.014 A 
ENDBRANCH   8  12
ENDBRANCH   2   4
BRANCH   1  18
ATOM     18  C   UNL d   1     -11.345  46.707   4.281  0.00  0.00     0.049 C 
ATOM     19  N   UNL d   1     -12.473  47.325   4.769  0.00  0.00    -0.364 N 
ATOM     20  C   UNL d   1     -12.141  48.265   5.699  0.00  0.00     0.100 C 
ATOM     21  H   UNL d   1     -13.378  47.253   4.328  0.00  0.00     0.165 HD
ATOM     22  C   UNL d   1     -10.836  48.023   6.055  0.00  0.00    -0.008 C 
ATOM     23  C   UNL d   1     -10.326  47.046   5.158  0.00  0.00     0.044 C 
BRANCH  22  24
ATOM     24  C   UNL d   1     -10.208  48.699   7.160  0.00  0.00    -0.024 A 
ATOM     25  C   UNL d   1      -8.812  48.837   7.152  0.00  0.00     0.015 A 
ATOM     26  C   UNL d   1      -8.177  49.544   8.166  0.00  0.00     0.043 A 
ATOM     27  C   UNL d   1      -8.941  50.102   9.183  0.00  0.00     0.116 A 
ATOM     28  F   UNL d   1      -8.332  50.799  10.150  0.00  0.00    -0.206 F 
ATOM     29  C   UNL d   1     -10.325  49.955   9.214  0.00  0.00     0.043 A 
ATOM     30  C   UNL d   1     -10.967  49.246   8.197  0.00  0.00     0.015 A 
ENDBRANCH  22  24
ENDBRANCH   1  18
TORSDOF 4
ENDMDL
