MODEL 1
REMARK VINA RESULT:    -8.368      0.000      0.000
REMARK INTER + INTRA:         -10.974
REMARK INTER:                 -10.325
REMARK INTRA:                  -0.649
REMARK UNBOUND:                -0.649
REMARK  4 active torsions:
REMARK  status: ('A' for Active; 'I' for Inactive)
REMARK    1  A    between atoms: C_5  and  C_6 
REMARK    2  A    between atoms: N_10  and  N_12 
REMARK    3  A    between atoms: C_14  and  C_15 
REMARK    4  A    between atoms: C_18  and  C_19 
ROOT
ATOM      1  C   UNL d   1      -9.735  47.939   6.782  0.00  0.00     0.051 A 
ATOM      2  C   UNL d   1     -10.806  48.109   5.988  0.00  0.00     0.083 A 
ATOM      3  S   UNL d   1     -10.691  47.123   4.535  0.00  0.00    -0.062 SA
ATOM      4  C   UNL d   1      -9.115  46.478   5.064  0.00  0.00     0.163 A 
ATOM      5  N   UNL d   1      -8.358  45.628   4.441  0.00  0.00    -0.280 N 
ATOM      6  HN  UNL d   1      -7.474  45.313   4.841  1.00  0.00     0.189 HD
ATOM      7  N   UNL d   1      -8.814  47.049   6.275  0.00  0.00    -0.334 N 
ATOM      8  H   UNL d   1      -7.986  46.781   6.783  0.00  0.00     0.168 HD
ENDROOT
BRANCH   5   9
ATOM      9  N   UNL d   1      -8.804  45.161   3.206  0.00  0.00    -0.308 N 
ATOM     10  C   UNL d   1      -7.955  45.355   2.234  0.00  0.00     0.136 C 
ATOM     11  HN  UNL d   1      -9.709  44.710   3.073  1.00  0.00     0.186 HD
BRANCH  10  12
ATOM     12  C   UNL d   1      -6.620  45.913   2.340  0.00  0.00     0.049 A 
ATOM     13  C   UNL d   1      -6.232  47.242   2.344  0.00  0.00     0.033 A 
ATOM     14  C   UNL d   1      -4.835  47.300   2.525  0.00  0.00     0.033 A 
ATOM     15  C   UNL d   1      -4.367  46.005   2.605  0.00  0.00     0.043 A 
ATOM     16  N   UNL d   1      -5.466  45.174   2.495  0.00  0.00    -0.354 N 
ATOM     17  H   UNL d   1      -5.419  44.166   2.541  0.00  0.00     0.166 HD
BRANCH  15  18
ATOM     18  C   UNL d   1      -3.029  45.505   2.903  0.00  0.00    -0.009 A 
ATOM     19  C   UNL d   1      -2.535  45.615   4.209  0.00  0.00     0.013 A 
ATOM     20  C   UNL d   1      -1.328  45.015   4.563  0.00  0.00     0.001 A 
ATOM     21  C   UNL d   1      -0.602  44.302   3.612  0.00  0.00     0.000 A 
ATOM     22  C   UNL d   1      -1.069  44.216   2.300  0.00  0.00     0.001 A 
ATOM     23  C   UNL d   1      -2.261  44.847   1.936  0.00  0.00     0.013 A 
ENDBRANCH  15  18
ENDBRANCH  10  12
ENDBRANCH   5   9
BRANCH   1  24
ATOM     24  C   UNL d   1      -9.514  48.653   8.044  0.00  0.00    -0.009 A 
ATOM     25  C   UNL d   1     -10.511  48.678   9.032  0.00  0.00     0.017 A 
ATOM     26  C   UNL d   1     -10.319  49.393  10.218  0.00  0.00     0.043 A 
ATOM     27  C   UNL d   1      -9.128  50.080  10.420  0.00  0.00     0.116 A 
ATOM     28  F   UNL d   1      -8.945  50.764  11.557  0.00  0.00    -0.206 F 
ATOM     29  C   UNL d   1      -8.128  50.069   9.455  0.00  0.00     0.043 A 
ATOM     30  C   UNL d   1      -8.320  49.356   8.267  0.00  0.00     0.017 A 
ENDBRANCH   1  24
TORSDOF 4
ENDMDL
