MODEL 1
REMARK VINA RESULT:    -7.258      0.000      0.000
REMARK INTER + INTRA:          -9.493
REMARK INTER:                  -9.380
REMARK INTRA:                  -0.113
REMARK UNBOUND:                -0.113
REMARK  6 active torsions:
REMARK  status: ('A' for Active; 'I' for Inactive)
REMARK    1  A    between atoms: O_1  and  N_2 
REMARK    2  A    between atoms: C_4  and  O_5 
REMARK    3  A    between atoms: C_6  and  C_4 
REMARK    4  A    between atoms: C_6  and  N_7 
REMARK    5  A    between atoms: C_16  and  C_17 
REMARK    6  A    between atoms: C_17  and  C_18 
ROOT
ATOM      1  C   UNL d   1      -8.274  46.650   0.550  0.00  0.00     0.225 C 
ATOM      2  C   UNL d   1      -8.439  47.891   1.426  0.00  0.00     0.051 C 
ATOM      3  C   UNL d   1      -9.584  48.074   2.342  0.00  0.00     0.008 C 
ATOM      4  C   UNL d   1      -9.971  46.792   3.054  0.00  0.00    -0.010 C 
ATOM      5  C   UNL d   1      -9.939  45.564   2.120  0.00  0.00     0.008 C 
ATOM      6  C   UNL d   1      -8.657  45.365   1.314  0.00  0.00     0.051 C 
ENDROOT
BRANCH   1   7
ATOM      7  N   UNL d   1      -6.865  46.633   0.026  0.00  0.00     0.106 N 
ATOM      8  C   UNL d   1      -6.057  45.419   0.209  0.00  0.00     0.274 C 
ATOM      9  C   UNL d   1      -6.032  44.775   1.599  0.00  0.00     0.030 C 
ATOM     10  C   UNL d   1      -5.347  45.595   2.720  0.00  0.00     0.002 C 
ATOM     11  C   UNL d   1      -5.430  47.136   2.788  0.00  0.00     0.002 C 
ATOM     12  C   UNL d   1      -5.106  47.863   1.485  0.00  0.00     0.030 C 
ATOM     13  C   UNL d   1      -6.126  47.861   0.344  0.00  0.00     0.274 C 
ENDBRANCH   1   7
BRANCH   1  14
ATOM     14  C   UNL d   1      -9.292  46.872  -0.620  0.00  0.00     0.175 C 
ATOM     15  N   UNL d   1      -9.885  45.907  -1.216  0.00  0.00    -0.249 N 
ATOM     16  HN  UNL d   1      -9.690  44.922  -1.038  1.00  0.00     0.196 HD
BRANCH  15  17
ATOM     17  O   UNL d   1     -10.834  46.361  -2.142  0.00  0.00    -0.288 OA
ATOM     18  H   UNL d   1     -10.748  45.702  -2.853  0.00  0.00     0.244 HD
ENDBRANCH  15  17
BRANCH  14  19
ATOM     19  O   UNL d   1      -9.658  48.126  -0.943  0.00  0.00    -0.346 OA
ATOM     20  H   UNL d   1      -9.971  48.502  -0.098  0.00  0.00     0.219 HD
ENDBRANCH  14  19
ENDBRANCH   1  14
BRANCH   4  21
ATOM     21  C   UNL d   1     -11.351  47.066   3.698  0.00  0.00     0.043 C 
BRANCH  21  22
ATOM     22  C   UNL d   1     -11.214  47.544   5.139  0.00  0.00    -0.058 A 
ATOM     23  C   UNL d   1     -12.247  48.275   5.741  0.00  0.00     0.009 A 
ATOM     24  C   UNL d   1     -12.005  49.035   6.882  0.00  0.00     0.024 A 
ATOM     25  C   UNL d   1     -10.747  49.005   7.477  0.00  0.00     0.034 A 
ATOM     26 CL   UNL d   1     -10.418  50.054   8.801  0.00  0.00    -0.084 Cl
ATOM     27  C   UNL d   1      -9.724  48.230   6.936  0.00  0.00     0.024 A 
ATOM     28  C   UNL d   1      -9.958  47.496   5.773  0.00  0.00     0.009 A 
ENDBRANCH  21  22
ENDBRANCH   4  21
TORSDOF 6
ENDMDL
