MODEL 1
REMARK VINA RESULT:    -6.545      0.000      0.000
REMARK INTER + INTRA:          -8.232
REMARK INTER:                  -8.459
REMARK INTRA:                   0.227
REMARK UNBOUND:                 0.227
REMARK  5 active torsions:
REMARK  status: ('A' for Active; 'I' for Inactive)
REMARK    1  A    between atoms: O_2  and  C_3 
REMARK    2  A    between atoms: C_10  and  N_8 
REMARK    3  A    between atoms: C_10  and  C_12 
REMARK    4  A    between atoms: C_16  and  N_17 
REMARK       I    between atoms: N_17  and  C_18 
REMARK    5  A    between atoms: C_18  and  C_20 
ROOT
ATOM      1  C   UNL d   1      -7.271  50.317  10.782  0.00  0.00    -0.034 A 
ATOM      2  C   UNL d   1      -8.495  50.668  11.387  0.00  0.00     0.009 A 
ATOM      3  C   UNL d   1      -8.506  51.345  12.554  0.00  0.00     0.003 A 
ATOM      4  C   UNL d   1      -7.292  51.760  13.023  0.00  0.00     0.029 A 
ATOM      5  C   UNL d   1      -6.030  51.477  12.502  0.00  0.00     0.035 A 
ATOM      6  C   UNL d   1      -6.030  50.659  11.387  0.00  0.00     0.038 A 
ENDROOT
BRANCH   1   7
ATOM      7  C   UNL d   1      -7.321  49.637   9.434  0.00  0.00     0.112 C 
ATOM      8  C   UNL d   1      -6.555  48.324   9.479  0.00  0.00     0.037 C 
BRANCH   7   9
ATOM      9  N   UNL d   1      -8.677  49.284   9.050  0.00  0.00    -0.366 N 
ATOM     10  C   UNL d   1      -9.025  48.977   7.848  0.00  0.00     0.126 C 
ATOM     11  N   UNL d   1      -8.192  48.857   6.746  0.00  0.00    -0.351 N 
ATOM     12  C   UNL d   1     -10.509  48.761   7.631  0.00  0.00     0.111 C 
ATOM     13  C   UNL d   1      -8.606  48.176   5.625  0.00  0.00     0.092 C 
ATOM     14  H   UNL d   1      -7.194  48.955   6.873  0.00  0.00     0.166 HD
ATOM     15  C   UNL d   1      -9.868  47.736   5.506  0.00  0.00     0.055 C 
ATOM     16  C   UNL d   1     -10.876  48.192   6.462  0.00  0.00     0.095 C 
ATOM     17 CL   UNL d   1     -11.567  49.331   8.869  0.00  0.00    -0.077 Cl
ATOM     18  HN  UNL d   1      -9.395  49.279   9.775  1.00  0.00     0.161 HD
BRANCH  16  19
ATOM     19  O   UNL d   1     -12.167  47.978   6.027  0.00  0.00    -0.354 OA
ATOM     20  C   UNL d   1     -12.278  47.697   4.629  0.00  0.00     0.210 C 
ENDBRANCH  16  19
ENDBRANCH   7   9
ENDBRANCH   1   7
BRANCH   5  21
ATOM     21  N   UNL d   1      -4.821  52.018  13.020  0.00  0.00    -0.327 N 
ATOM     22  C   UNL d   1      -3.880  51.474  13.872  0.00  0.00     0.229 C 
ATOM     23  O   UNL d   1      -2.918  52.186  14.215  0.00  0.00    -0.272 OA
ATOM     24  H   UNL d   1      -4.601  52.984  12.789  0.00  0.00     0.169 HD
BRANCH  22  25
ATOM     25  C   UNL d   1      -4.013  50.037  14.400  0.00  0.00     0.030 C 
ATOM     26  C   UNL d   1      -3.391  49.062  13.328  0.00  0.00     0.025 C 
ATOM     27  C   UNL d   1      -3.545  50.032  15.905  0.00  0.00     0.025 C 
ATOM     28  C   UNL d   1      -5.455  49.531  14.508  0.00  0.00     0.025 C 
ENDBRANCH  22  25
ENDBRANCH   5  21
TORSDOF 5
ENDMDL
