MODEL 1
REMARK VINA RESULT:    -7.419      0.000      0.000
REMARK INTER + INTRA:         -10.413
REMARK INTER:                  -9.588
REMARK INTRA:                  -0.825
REMARK UNBOUND:                -0.825
REMARK  5 active torsions:
REMARK  status: ('A' for Active; 'I' for Inactive)
REMARK    1  A    between atoms: C_2  and  N_3 
REMARK    2  A    between atoms: N_3  and  C_4 
REMARK    3  A    between atoms: C_4  and  C_8 
REMARK    4  A    between atoms: C_13  and  C_14 
REMARK    5  A    between atoms: C_17  and  C_18 
ROOT
ATOM      1  C   UNL d   1      -7.301  47.567   3.204  0.00  0.00     0.054 C 
ATOM      2  C   UNL d   1      -7.339  46.589   2.290  0.00  0.00    -0.007 C 
ATOM      3  C   UNL d   1      -8.364  45.513   2.260  0.00  0.00     0.033 C 
ATOM      4  C   UNL d   1      -9.413  45.520   3.374  0.00  0.00     0.046 C 
ATOM      5  C   UNL d   1      -9.375  46.629   4.385  0.00  0.00    -0.004 C 
ATOM      6  C   UNL d   1     -10.263  46.616   5.407  0.00  0.00     0.048 C 
ATOM      7  C   UNL d   1      -8.347  47.700   4.232  0.00  0.00     0.192 C 
ATOM      8  O   UNL d   1      -8.300  48.692   4.961  0.00  0.00    -0.287 OA
ENDROOT
BRANCH   6   9
ATOM      9  C   UNL d   1     -10.342  47.638   6.394  0.00  0.00     0.076 A 
ATOM     10  C   UNL d   1     -11.374  48.549   6.589  0.00  0.00     0.040 A 
ATOM     11  C   UNL d   1     -10.964  49.480   7.551  0.00  0.00     0.041 A 
ATOM     12  C   UNL d   1      -9.743  49.044   8.002  0.00  0.00     0.086 A 
ATOM     13  O   UNL d   1      -9.353  47.926   7.319  0.00  0.00    -0.310 OA
BRANCH  12  14
ATOM     14  C   UNL d   1      -8.890  49.534   9.066  0.00  0.00    -0.002 A 
ATOM     15  C   UNL d   1      -7.498  49.476   8.886  0.00  0.00     0.017 A 
ATOM     16  C   UNL d   1      -6.632  49.901   9.892  0.00  0.00     0.043 A 
ATOM     17  C   UNL d   1      -7.160  50.375  11.084  0.00  0.00     0.116 A 
ATOM     18  F   UNL d   1      -6.329  50.798  12.047  0.00  0.00    -0.206 F 
ATOM     19  C   UNL d   1      -8.535  50.415  11.295  0.00  0.00     0.043 A 
ATOM     20  C   UNL d   1      -9.405  49.990  10.284  0.00  0.00     0.017 A 
ENDBRANCH  12  14
ENDBRANCH   6   9
BRANCH   1  21
ATOM     21  C   UNL d   1      -6.149  48.543   3.212  0.00  0.00     0.110 C 
ATOM     22  N   UNL d   1      -6.439  49.739   2.795  0.00  0.00    -0.380 N 
ATOM     23  C   UNL d   1      -5.408  50.761   2.826  0.00  0.00     0.147 C 
ATOM     24  HN  UNL d   1      -7.376  49.957   2.453  1.00  0.00     0.160 HD
BRANCH  21  25
ATOM     25  N   UNL d   1      -4.892  48.155   3.650  0.00  0.00    -0.376 N 
ATOM     26  H   UNL d   1      -4.728  48.165   4.647  0.00  0.00     0.161 HD
BRANCH  25  27
ATOM     27  C   UNL d   1      -3.899  47.425   2.879  0.00  0.00     0.116 C 
ATOM     28  C   UNL d   1      -3.799  46.006   3.372  0.00  0.00     0.026 C 
ENDBRANCH  25  27
ENDBRANCH  21  25
ENDBRANCH   1  21
TORSDOF 5
ENDMDL
