MODEL 1
REMARK VINA RESULT:    -8.807      0.000      0.000
REMARK INTER + INTRA:         -11.133
REMARK INTER:                 -10.866
REMARK INTRA:                  -0.267
REMARK UNBOUND:                -0.267
REMARK  4 active torsions:
REMARK  status: ('A' for Active; 'I' for Inactive)
REMARK    1  A    between atoms: N_6  and  C_8 
REMARK    2  A    between atoms: C_12  and  N_13 
REMARK       I    between atoms: N_13  and  C_14 
REMARK    3  A    between atoms: C_14  and  C_16 
REMARK    4  A    between atoms: C_17  and  C_18 
ROOT
ATOM      1  C   UNL d   1     -10.386  47.582   5.391  0.00  0.00     0.036 C 
ATOM      2  C   UNL d   1     -11.457  47.544   4.531  0.00  0.00     0.029 C 
ATOM      3  C   UNL d   1     -12.575  48.317   4.822  0.00  0.00     0.004 C 
ATOM      4  C   UNL d   1     -12.725  48.899   6.096  0.00  0.00     0.029 C 
ATOM      5  C   UNL d   1     -11.686  48.820   7.010  0.00  0.00     0.037 C 
ATOM      6  C   UNL d   1     -10.466  48.477   6.463  0.00  0.00     0.059 C 
ENDROOT
BRANCH   5   7
ATOM      7  N   UNL d   1     -11.905  49.001   8.406  0.00  0.00    -0.324 N 
ATOM      8  C   UNL d   1     -11.062  49.216   9.494  0.00  0.00     0.245 C 
ATOM      9  O   UNL d   1     -11.543  49.316  10.612  0.00  0.00    -0.268 OA
ATOM     10  H   UNL d   1     -12.843  48.799   8.741  0.00  0.00     0.169 HD
BRANCH   8  11
ATOM     11  C   UNL d   1      -9.584  49.424   9.365  0.00  0.00     0.075 C 
ATOM     12  C   UNL d   1      -8.811  49.877  10.348  0.00  0.00     0.020 C 
BRANCH  12  13
ATOM     13  C   UNL d   1      -7.356  49.751  10.470  0.00  0.00     0.003 A 
ATOM     14  C   UNL d   1      -6.858  48.730   9.690  0.00  0.00     0.014 A 
ATOM     15  C   UNL d   1      -5.499  48.650   9.434  0.00  0.00     0.001 A 
ATOM     16  C   UNL d   1      -4.616  49.600   9.945  0.00  0.00     0.003 A 
ATOM     17  C   UNL d   1      -5.089  50.609  10.773  0.00  0.00     0.043 A 
ATOM     18  C   UNL d   1      -6.449  50.662  11.070  0.00  0.00     0.126 A 
ATOM     19  F   UNL d   1      -6.840  51.679  11.857  0.00  0.00    -0.205 F 
ENDBRANCH  12  13
ENDBRANCH   8  11
ENDBRANCH   5   7
BRANCH   1  20
ATOM     20  N   UNL d   1      -9.390  46.584   5.295  0.00  0.00    -0.337 N 
ATOM     21  C   UNL d   1      -8.585  46.537   4.287  0.00  0.00     0.149 A 
ATOM     22  S   UNL d   1      -8.518  47.743   2.977  0.00  0.00    -0.064 SA
ATOM     23  N   UNL d   1      -7.588  45.609   4.054  0.00  0.00    -0.340 N 
ATOM     24  C   UNL d   1      -7.097  46.990   2.313  0.00  0.00     0.077 A 
ATOM     25  C   UNL d   1      -6.732  45.896   3.003  0.00  0.00     0.014 A 
ATOM     26  C   UNL d   1      -5.525  45.071   2.714  0.00  0.00     0.068 C 
ATOM     27  H   UNL d   1      -7.323  44.946   4.773  0.00  0.00     0.167 HD
ATOM     28  HN  UNL d   1      -9.306  45.887   6.034  1.00  0.00     0.168 HD
ENDBRANCH   1  20
TORSDOF 4
ENDMDL
