MODEL 1
REMARK VINA RESULT:    -7.826      0.000      0.000
REMARK INTER + INTRA:         -10.589
REMARK INTER:                  -9.656
REMARK INTRA:                  -0.933
REMARK UNBOUND:                -0.933
REMARK  4 active torsions:
REMARK  status: ('A' for Active; 'I' for Inactive)
REMARK    1  A    between atoms: C_2  and  C_3 
REMARK    2  A    between atoms: C_9  and  N_10 
REMARK    3  A    between atoms: C_17  and  C_18 
REMARK    4  A    between atoms: C_21  and  O_22 
ROOT
ATOM      1  N   UNL d   1      -8.992  46.594   5.829  0.00  0.00    -0.341 N 
ATOM      2  HN  UNL d   1      -8.882  45.709   6.322  1.00  0.00     0.167 HD
ATOM      3  C   UNL d   1      -8.405  46.718   4.669  0.00  0.00     0.124 C 
ATOM      4  C   UNL d   1      -8.352  48.020   4.016  0.00  0.00     0.100 C 
ATOM      5  C   UNL d   1      -8.325  47.829   2.723  0.00  0.00     0.131 C 
ATOM      6  N   UNL d   1      -8.329  48.552   1.555  0.00  0.00    -0.348 N 
ATOM      7  C   UNL d   1      -7.554  47.841   0.671  0.00  0.00     0.122 C 
ATOM      8  C   UNL d   1      -7.143  46.696   1.291  0.00  0.00     0.084 C 
ATOM      9  N   UNL d   1      -7.797  46.559   2.521  0.00  0.00    -0.236 N 
ATOM     10  N   UNL d   1      -7.753  45.889   3.740  0.00  0.00    -0.277 N 
ATOM     11  H   UNL d   1      -8.772  49.439   1.380  0.00  0.00     0.167 HD
ATOM     12  H   UNL d   1      -7.223  45.051   3.936  0.00  0.00     0.189 HD
ENDROOT
BRANCH   1  13
ATOM     13  C   UNL d   1      -9.816  47.658   6.488  0.00  0.00     0.041 A 
ATOM     14  C   UNL d   1      -9.197  48.355   7.555  0.00  0.00     0.053 A 
ATOM     15  C   UNL d   1      -9.892  49.316   8.330  0.00  0.00     0.036 A 
ATOM     16  C   UNL d   1     -11.209  49.658   8.061  0.00  0.00     0.024 A 
ATOM     17 CL   UNL d   1      -9.134  50.093   9.671  0.00  0.00    -0.084 Cl
ATOM     18  C   UNL d   1     -11.853  49.029   7.020  0.00  0.00     0.011 A 
ATOM     19  C   UNL d   1     -11.219  48.015   6.277  0.00  0.00    -0.032 A 
BRANCH  19  20
ATOM     20  C   UNL d   1     -12.152  47.386   5.272  0.00  0.00     0.036 C 
ATOM     21  C   UNL d   1     -12.059  47.342   3.774  0.00  0.00     0.010 C 
ENDBRANCH  19  20
ENDBRANCH   1  13
BRANCH   8  22
ATOM     22  C   UNL d   1      -6.269  45.724   0.716  0.00  0.00    -0.006 A 
ATOM     23  C   UNL d   1      -5.099  45.448   1.409  0.00  0.00     0.016 A 
ATOM     24  C   UNL d   1      -4.298  44.401   0.999  0.00  0.00     0.037 A 
ATOM     25  C   UNL d   1      -4.663  43.632  -0.108  0.00  0.00     0.068 A 
ATOM     26  C   UNL d   1      -5.855  43.904  -0.787  0.00  0.00     0.037 A 
ATOM     27  C   UNL d   1      -6.634  44.992  -0.416  0.00  0.00     0.016 A 
BRANCH  25  28
ATOM     28  O   UNL d   1      -3.917  42.605  -0.617  0.00  0.00    -0.356 OA
ATOM     29  C   UNL d   1      -2.584  42.510  -0.122  0.00  0.00     0.210 C 
ENDBRANCH  25  28
ENDBRANCH   8  22
TORSDOF 4
ENDMDL
