MODEL 1
REMARK VINA RESULT:    -7.704      0.000      0.000
REMARK INTER + INTRA:          -9.458
REMARK INTER:                  -9.956
REMARK INTRA:                   0.498
REMARK UNBOUND:                 0.498
REMARK  7 active torsions:
REMARK  status: ('A' for Active; 'I' for Inactive)
REMARK    1  A    between atoms: C_2  and  C_3 
REMARK    2  A    between atoms: C_5  and  C_6 
REMARK       I    between atoms: C_6  and  N_8 
REMARK    3  A    between atoms: N_8  and  C_9 
REMARK    4  A    between atoms: C_11  and  N_12 
REMARK    5  A    between atoms: N_12  and  N_14 
REMARK    6  A    between atoms: N_14  and  N_15 
REMARK    7  A    between atoms: C_24  and  O_25 
ROOT
ATOM      1  C   UNL d   1     -11.221  49.199   9.091  0.00  0.00     0.256 C 
ATOM      2  O   UNL d   1     -11.804  49.317  10.170  0.00  0.00    -0.267 OA
ATOM      3  N   UNL d   1     -11.978  48.893   7.952  0.00  0.00    -0.322 N 
ATOM      4  H   UNL d   1     -12.979  48.995   8.091  0.00  0.00     0.169 HD
ENDROOT
BRANCH   3   5
ATOM      5  C   UNL d   1     -11.522  48.482   6.675  0.00  0.00     0.054 C 
ATOM      6  C   UNL d   1     -10.591  47.416   6.607  0.00  0.00     0.063 C 
ATOM      7  C   UNL d   1     -10.397  46.693   5.407  0.00  0.00     0.065 C 
ATOM      8  C   UNL d   1     -11.179  47.045   4.297  0.00  0.00     0.033 C 
ATOM      9  C   UNL d   1     -12.031  48.149   4.336  0.00  0.00     0.024 C 
ATOM     10  C   UNL d   1     -12.135  48.925   5.489  0.00  0.00     0.037 C 
ATOM     11 BR   UNL d   1     -13.253  50.468   5.391  0.00  0.00    -0.049 Br
BRANCH   7  12
ATOM     12  N   UNL d   1      -9.488  45.610   5.410  0.00  0.00    -0.217 N 
ATOM     13  HN  UNL d   1      -9.641  44.779   5.981  1.00  0.00     0.203 HD
BRANCH  12  14
ATOM     14  N   UNL d   1      -8.481  45.729   4.669  0.00  0.00    -0.243 NA
BRANCH  14  15
ATOM     15  N   UNL d   1      -7.568  45.826   4.000  0.00  0.00    -0.260 N 
ATOM     16  HN2 UNL d   1      -8.051  45.508   4.840  1.00  0.00     0.193 HD
ATOM     17  HN1 UNL d   1      -6.754  45.918   3.392  1.00  0.00     0.193 HD
ENDBRANCH  14  15
ENDBRANCH  12  14
ENDBRANCH   7  12
ENDBRANCH   3   5
BRANCH   1  18
ATOM     18  C   UNL d   1      -9.719  49.425   9.035  0.00  0.00     0.033 C 
ATOM     19  C   UNL d   1      -8.950  49.399  10.196  0.00  0.00     0.027 C 
ATOM     20  C   UNL d   1      -7.537  49.508  10.129  0.00  0.00    -0.024 C 
ATOM     21  C   UNL d   1      -6.899  49.472   8.886  0.00  0.00     0.072 C 
ATOM     22  C   UNL d   1      -7.644  49.489   7.734  0.00  0.00     0.038 C 
ATOM     23  C   UNL d   1      -9.022  49.641   7.846  0.00  0.00     0.020 C 
BRANCH  20  24
ATOM     24  C   UNL d   1      -6.672  49.749  11.338  0.00  0.00     0.037 C 
ATOM     25  C   UNL d   1      -6.700  51.176  11.839  0.00  0.00     0.010 C 
ENDBRANCH  20  24
BRANCH  21  26
ATOM     26  O   UNL d   1      -5.537  49.508   8.816  0.00  0.00    -0.360 OA
ATOM     27  H   UNL d   1      -5.168  48.879   9.457  0.00  0.00     0.217 HD
ENDBRANCH  21  26
ENDBRANCH   1  18
TORSDOF 7
ENDMDL
