MODEL 1
REMARK VINA RESULT:    -8.042      0.000      0.000
REMARK INTER + INTRA:         -10.248
REMARK INTER:                  -9.922
REMARK INTRA:                  -0.326
REMARK UNBOUND:                -0.326
REMARK  4 active torsions:
REMARK  status: ('A' for Active; 'I' for Inactive)
REMARK    1  A    between atoms: C_2  and  O_3 
REMARK    2  A    between atoms: O_3  and  C_4 
REMARK    3  A    between atoms: C_8  and  C_9 
REMARK       I    between atoms: N_13  and  C_15 
REMARK       I    between atoms: C_15  and  N_17 
REMARK    4  A    between atoms: N_17  and  C_18 
ROOT
ATOM      1  C   UNL d   1     -10.023  49.011   8.349  0.00  0.00     0.051 A 
ATOM      2  C   UNL d   1      -8.915  48.465   7.819  0.00  0.00     0.083 A 
ATOM      3  S   UNL d   1      -7.503  48.885   8.749  0.00  0.00    -0.063 SA
ATOM      4  C   UNL d   1      -8.483  49.857   9.882  0.00  0.00     0.152 A 
ATOM      5  N   UNL d   1      -8.093  50.554  10.893  0.00  0.00    -0.288 N 
ATOM      6  HN  UNL d   1      -8.797  51.044  11.446  1.00  0.00     0.172 HD
ATOM      7  C   UNL d   1      -6.785  50.668  11.261  0.00  0.00     0.326 C 
ATOM      8  O   UNL d   1      -5.816  50.103  10.750  0.00  0.00    -0.247 OA
ATOM      9  N   UNL d   1      -6.518  51.561  12.271  0.00  0.00    -0.309 N 
ATOM     10  N   UNL d   1      -9.796  49.749   9.481  0.00  0.00    -0.335 N 
ATOM     11  H   UNL d   1      -5.529  51.716  12.405  0.00  0.00     0.170 HD
ATOM     12  H   UNL d   1     -10.554  50.184   9.983  0.00  0.00     0.168 HD
ENDROOT
BRANCH   1  13
ATOM     13  C   UNL d   1     -11.327  48.926   7.699  0.00  0.00    -0.006 C 
ATOM     14  C   UNL d   1     -12.471  49.159   8.473  0.00  0.00     0.014 C 
ATOM     15  C   UNL d   1     -13.706  48.752   8.010  0.00  0.00     0.004 C 
ATOM     16  C   UNL d   1     -13.792  48.114   6.781  0.00  0.00     0.037 C 
ATOM     17  C   UNL d   1     -12.700  48.004   5.923  0.00  0.00     0.069 C 
ATOM     18  C   UNL d   1     -11.452  48.423   6.389  0.00  0.00     0.050 C 
BRANCH  17  19
ATOM     19  O   UNL d   1     -12.749  47.312   4.743  0.00  0.00    -0.351 OA
BRANCH  19  20
ATOM     20  C   UNL d   1     -11.667  47.478   3.811  0.00  0.00     0.171 C 
ATOM     21  C   UNL d   1     -11.049  46.208   3.244  0.00  0.00     0.034 C 
ENDBRANCH  19  20
ENDBRANCH  17  19
ENDBRANCH   1  13
BRANCH   9  22
ATOM     22  C   UNL d   1      -7.413  52.206  13.136  0.00  0.00     0.036 A 
ATOM     23  C   UNL d   1      -8.303  51.486  13.935  0.00  0.00     0.031 A 
ATOM     24  C   UNL d   1      -9.100  52.140  14.872  0.00  0.00     0.026 A 
ATOM     25  C   UNL d   1      -9.011  53.521  15.012  0.00  0.00     0.034 A 
ATOM     26 CL   UNL d   1     -10.036  54.329  16.131  0.00  0.00    -0.084 Cl
ATOM     27  C   UNL d   1      -8.115  54.251  14.232  0.00  0.00     0.026 A 
ATOM     28  C   UNL d   1      -7.332  53.595  13.275  0.00  0.00     0.031 A 
ENDBRANCH   9  22
TORSDOF 4
ENDMDL
