MODEL 1
REMARK VINA RESULT:    -6.809      0.000      0.000
REMARK INTER + INTRA:          -9.547
REMARK INTER:                  -8.799
REMARK INTRA:                  -0.748
REMARK UNBOUND:                -0.748
REMARK  5 active torsions:
REMARK  status: ('A' for Active; 'I' for Inactive)
REMARK    1  A    between atoms: C_7  and  N_8 
REMARK    2  A    between atoms: N_8  and  N_9 
REMARK    3  A    between atoms: C_11  and  N_12 
REMARK    4  A    between atoms: C_11  and  C_18 
REMARK    5  A    between atoms: N_12  and  C_13 
ROOT
ATOM      1  N   UNL d   1      -8.123  48.508   6.587  0.00  0.00    -0.283 N 
ATOM      2  HN  UNL d   1      -7.337  47.952   6.252  1.00  0.00     0.188 HD
ATOM      3  C   UNL d   1      -9.313  48.164   6.190  0.00  0.00     0.150 C 
ENDROOT
BRANCH   3   4
ATOM      4  N   UNL d   1     -10.458  48.835   6.618  0.00  0.00    -0.368 N 
ATOM      5  H   UNL d   1     -10.226  49.802   6.763  0.00  0.00     0.161 HD
BRANCH   4   6
ATOM      6  C   UNL d   1     -11.577  48.267   7.384  0.00  0.00     0.083 C 
ATOM      7  C   UNL d   1     -12.803  48.612   6.600  0.00  0.00     0.025 C 
ATOM      8  C   UNL d   1     -13.955  48.890   7.506  0.00  0.00     0.002 C 
ATOM      9  C   UNL d   1     -13.367  49.015   8.881  0.00  0.00     0.002 C 
ATOM     10  C   UNL d   1     -11.860  49.004   8.698  0.00  0.00     0.025 C 
ENDBRANCH   4   6
ENDBRANCH   3   4
BRANCH   3  11
ATOM     11  C   UNL d   1      -9.454  47.114   5.170  0.00  0.00     0.121 C 
ATOM     12  C   UNL d   1     -10.501  46.445   4.554  0.00  0.00     0.044 C 
ATOM     13  C   UNL d   1      -9.936  45.744   3.438  0.00  0.00     0.048 C 
ATOM     14  C   UNL d   1      -8.586  45.972   3.481  0.00  0.00     0.122 C 
ATOM     15 BR   UNL d   1      -7.324  45.562   2.164  0.00  0.00    -0.023 Br
ATOM     16  O   UNL d   1      -8.291  46.652   4.610  0.00  0.00    -0.299 OA
ENDBRANCH   3  11
BRANCH   1  17
ATOM     17  N   UNL d   1      -7.833  49.592   7.445  0.00  0.00    -0.299 N 
ATOM     18  H   UNL d   1      -7.354  50.357   6.975  0.00  0.00     0.187 HD
BRANCH  17  19
ATOM     19  C   UNL d   1      -7.776  49.672   8.869  0.00  0.00     0.054 C 
ATOM     20  C   UNL d   1      -8.843  50.048   9.661  0.00  0.00     0.031 C 
ATOM     21  C   UNL d   1      -8.728  50.593  10.941  0.00  0.00     0.002 C 
ATOM     22  C   UNL d   1      -7.552  50.473  11.629  0.00  0.00     0.001 C 
ATOM     23  C   UNL d   1      -6.525  49.813  10.988  0.00  0.00     0.009 C 
ATOM     24  C   UNL d   1      -6.594  49.459   9.606  0.00  0.00    -0.034 C 
ATOM     25  C   UNL d   1      -5.425  48.734   9.016  0.00  0.00     0.050 C 
ENDBRANCH  17  19
ENDBRANCH   1  17
TORSDOF 5
ENDMDL
