MODEL 1
REMARK VINA RESULT:    -6.162      0.000      0.000
REMARK INTER + INTRA:          -8.807
REMARK INTER:                  -7.783
REMARK INTRA:                  -1.024
REMARK UNBOUND:                -1.024
REMARK  5 active torsions:
REMARK  status: ('A' for Active; 'I' for Inactive)
REMARK    1  A    between atoms: C_9  and  C_8 
REMARK    2  A    between atoms: C_9  and  C_22 
REMARK    3  A    between atoms: C_9  and  N_10 
REMARK    4  A    between atoms: C_17  and  C_18 
REMARK    5  A    between atoms: C_25  and  O_26 
ROOT
ATOM      1  C   UNL d   1      -8.165  45.507   2.227  0.00  0.00     0.166 C 
ENDROOT
BRANCH   1   2
ATOM      2  C   UNL d   1      -9.356  45.912   3.174  0.00  0.00    -0.030 C 
ATOM      3  C   UNL d   1     -10.676  46.000   2.700  0.00  0.00     0.012 C 
ATOM      4  C   UNL d   1     -11.688  46.564   3.501  0.00  0.00     0.037 C 
ATOM      5  C   UNL d   1     -11.427  46.930   4.817  0.00  0.00     0.065 C 
ATOM      6  C   UNL d   1     -10.190  46.676   5.374  0.00  0.00     0.037 C 
ATOM      7  C   UNL d   1      -9.166  46.209   4.548  0.00  0.00     0.012 C 
BRANCH   5   8
ATOM      8  O   UNL d   1     -12.399  47.565   5.535  0.00  0.00    -0.361 OA
ATOM      9  H   UNL d   1     -12.372  48.511   5.311  0.00  0.00     0.217 HD
ENDBRANCH   5   8
ENDBRANCH   1   2
BRANCH   1  10
ATOM     10  N   UNL d   1      -8.661  45.112   0.855  0.00  0.00    -0.213 N 
ATOM     11  C   UNL d   1      -7.973  44.441  -0.019  0.00  0.00     0.678 C 
ATOM     12  N   UNL d   1      -6.727  43.920   0.281  0.00  0.00    -0.202 N 
ATOM     13  N   UNL d   1      -8.359  44.478  -1.371  0.00  0.00    -0.195 N 
ATOM     14  C   UNL d   1      -5.842  44.042  -0.663  0.00  0.00     0.108 C 
ATOM     15  HN  UNL d   1      -6.519  43.475   1.175  1.00  0.00     0.183 HD
ATOM     16  C   UNL d   1      -6.080  44.534  -2.048  0.00  0.00     0.043 C 
ATOM     17  C   UNL d   1      -7.384  44.727  -2.367  0.00  0.00     0.031 C 
ATOM     18  H   UNL d   1      -9.228  44.989  -1.503  0.00  0.00     0.184 HD
ATOM     19  HN  UNL d   1      -9.607  45.394   0.596  1.00  0.00     0.178 HD
BRANCH  17  20
ATOM     20  C   UNL d   1      -7.762  45.219  -3.769  0.00  0.00     0.028 C 
ATOM     21  C   UNL d   1      -7.438  44.302  -4.976  0.00  0.00     0.016 C 
ATOM     22  C   UNL d   1      -9.278  45.449  -3.745  0.00  0.00     0.016 C 
ENDBRANCH  17  20
ENDBRANCH   1  10
BRANCH   1  23
ATOM     23  C   UNL d   1      -7.074  46.612   2.273  0.00  0.00    -0.023 C 
ATOM     24  C   UNL d   1      -5.827  46.287   2.863  0.00  0.00     0.034 C 
ATOM     25  C   UNL d   1      -4.779  47.204   2.863  0.00  0.00     0.034 C 
ATOM     26  C   UNL d   1      -4.886  48.373   2.130  0.00  0.00     0.024 C 
ATOM     27 CL   UNL d   1      -3.358  46.907   3.785  0.00  0.00    -0.084 Cl
ATOM     28  C   UNL d   1      -6.114  48.724   1.594  0.00  0.00     0.009 C 
ATOM     29  C   UNL d   1      -7.249  47.946   1.843  0.00  0.00    -0.053 C 
ATOM     30  C   UNL d   1      -8.567  48.595   1.560  0.00  0.00     0.049 C 
ENDBRANCH   1  23
TORSDOF 5
ENDMDL
