MODEL 1
REMARK VINA RESULT:    -7.072      0.000      0.000
REMARK INTER + INTRA:          -9.772
REMARK INTER:                  -8.726
REMARK INTRA:                  -1.046
REMARK UNBOUND:                -1.046
REMARK  4 active torsions:
REMARK  status: ('A' for Active; 'I' for Inactive)
REMARK    1  A    between atoms: O_2  and  C_3 
REMARK    2  A    between atoms: C_5  and  C_6 
REMARK    3  A    between atoms: N_11  and  C_13 
REMARK    4  A    between atoms: C_21  and  C_22 
ROOT
ATOM      1  C   UNL d   1      -3.957  51.111  10.778  0.00  0.00     0.067 C 
ATOM      2  C   UNL d   1      -3.103  50.105  10.002  0.00  0.00     0.021 C 
ATOM      3  C   UNL d   1      -3.055  48.837  10.255  0.00  0.00     0.067 C 
ATOM      4  C   UNL d   1      -4.131  48.624   9.138  0.00  0.00     0.048 C 
ATOM      5  N   UNL d   1      -3.818  48.337   7.892  0.00  0.00    -0.343 N 
ATOM      6  HN  UNL d   1      -4.542  48.259   7.179  1.00  0.00     0.167 HD
ATOM      7  C   UNL d   1      -5.528  49.060   9.388  0.00  0.00     0.084 C 
ATOM      8  N   UNL d   1      -6.662  48.633   8.741  0.00  0.00    -0.342 N 
ATOM      9  C   UNL d   1      -7.733  48.998   9.545  0.00  0.00     0.086 C 
ATOM     10  N   UNL d   1      -7.368  49.747  10.545  0.00  0.00    -0.344 N 
ATOM     11  HN  UNL d   1      -7.919  50.058  11.345  1.00  0.00     0.167 HD
ATOM     12  C   UNL d   1      -6.062  50.011  10.253  0.00  0.00     0.065 C 
ATOM     13  C   UNL d   1      -5.292  50.925  11.035  0.00  0.00     0.068 C 
ATOM     14  H   UNL d   1      -6.684  48.194   7.856  0.00  0.00     0.167 HD
ENDROOT
BRANCH   3  15
ATOM     15  C   UNL d   1      -3.048  48.651  11.762  0.00  0.00    -0.001 C 
ATOM     16  C   UNL d   1      -2.490  48.133  13.092  0.00  0.00     0.005 C 
ATOM     17  C   UNL d   1      -4.038  47.929  13.447  0.00  0.00     0.001 C 
ATOM     18  C   UNL d   1      -3.968  47.467  12.031  0.00  0.00     0.005 C 
ENDBRANCH   3  15
BRANCH   5  19
ATOM     19  C   UNL d   1      -2.499  48.143   7.572  0.00  0.00     0.107 A 
ATOM     20  C   UNL d   1      -1.477  48.982   7.148  0.00  0.00     0.053 A 
ATOM     21  C   UNL d   1      -0.328  48.212   6.852  0.00  0.00     0.065 A 
ATOM     22  C   UNL d   1      -0.637  46.925   7.187  0.00  0.00     0.190 A 
ATOM     23  F   UNL d   1       0.176  45.907   7.096  0.00  0.00    -0.186 F 
ATOM     24  N   UNL d   1      -1.937  46.876   7.620  0.00  0.00    -0.319 N 
ATOM     25  H   UNL d   1      -2.415  46.033   7.892  0.00  0.00     0.169 HD
ENDBRANCH   5  19
BRANCH   1  26
ATOM     26  O   UNL d   1      -3.557  52.409  10.718  0.00  0.00    -0.356 OA
ATOM     27  C   UNL d   1      -2.233  52.542  10.231  0.00  0.00     0.210 C 
ENDBRANCH   1  26
BRANCH   9  28
ATOM     28  C   UNL d   1      -9.178  48.799   9.182  0.00  0.00     0.053 C 
ATOM     29  C   UNL d   1     -10.137  49.980   9.453  0.00  0.00     0.012 C 
ATOM     30  C   UNL d   1     -11.139  48.938   9.994  0.00  0.00     0.002 C 
ATOM     31  C   UNL d   1      -9.930  48.060  10.329  0.00  0.00     0.012 C 
ENDBRANCH   9  28
TORSDOF 4
ENDMDL
